/*--------------------------------*- C++ -*----------------------------------*\
| =========                 |                                                 |
| \\      /  F ield         | OpenFOAM: The Open Source CFD Toolbox           |
|  \\    /   O peration     | Version:  2.4.x                                 |
|   \\  /    A nd           | Web:      www.OpenFOAM.org                      |
|    \\/     M anipulation  |                                                 |
\*---------------------------------------------------------------------------*/
FoamFile
{
    version     2.0;
    format      binary;
    class       polyBoundaryMesh;
    location    "constant/polyMesh";
    object      boundary;
}
// * * * * * * * * * * * * * * * * * * * * * * * * * * * * * * * * * * * * * //

6
(
    lower
    {
        type            wall;
        inGroups        1(wall);
        nFaces          5200;
        startFace       859888;
    }
    upper
    {
        type            patch;
        nFaces          5200;
        startFace       865088;
    }
    west
    {
        type            cyclic;
        inGroups        1(cyclic);
        nFaces          2912;
        startFace       870288;
        matchTolerance  0.0001;
        transform       unknown;
        neighbourPatch  east;
    }
    east
    {
        type            cyclic;
        inGroups        1(cyclic);
        nFaces          2912;
        startFace       873200;
        matchTolerance  0.0001;
        transform       unknown;
        neighbourPatch  west;
    }
    north
    {
        type            cyclic;
        inGroups        1(cyclic);
        nFaces          5600;
        startFace       876112;
        matchTolerance  0.0001;
        transform       unknown;
        neighbourPatch  south;
    }
    south
    {
        type            cyclic;
        inGroups        1(cyclic);
        nFaces          5600;
        startFace       881712;
        matchTolerance  0.0001;
        transform       unknown;
        neighbourPatch  north;
    }
)

// ************************************************************************* //
